Circuit: * U:\Documents\MOSH\LTspice\Draft1.asc

Direct Newton iteration for .op point succeeded.

Date: Wed Dec 01 15:06:40 2021
Total elapsed time: 1.123 seconds.

tnom = 27
temp = 27
method = modified trap
totiter = 123700
traniter = 123678
tranpoints = 61840
accept = 39743
rejected = 22097
matrix size = 16
fillins = 5
solver = Normal
Matrix Compiler1: 692 bytes object code size  0.2/0.1/[0.1]
Matrix Compiler2: 1.30 KB object code size  0.1/0.2/[0.1]

